8

S    0.00000000  0.00000000  0.00000000
Li   1.23795900  2.00802000 -0.46140900
S   -0.24733400  3.81336600  0.00000000
Li  -1.48529300  1.80534600 -0.46140900
S    0.00000000  4.23850800 -2.02798300
S   -0.85174500  2.68590000 -3.08790400
S    0.60441100  1.12746600 -3.08790400
S   -0.24733400 -0.42514200 -2.02798300
